'OUTPUT STRING'
La_VTZ
'CALCULATION TREE: HFSCF, MBPTN, MCSCF, EXPVL, PLOTS'
HFSCF
'HAMILTONIAN: NORL, BARE, DHFR, DHFP, DHFB OR DHFQ'
DHFR
'CONTINUING CALCULATION: RESUME (TRUE), NEW START (FALSE)'
.FALSE.
'NUMBER OF ATOMIC CENTRES'
1
'CENTER 1'
'CARTESIAN COORDINATES'
0.0000,0.0000,0.0000
'NUCLEUS: MODEL, CHARGE, MASS'
FERMI,57,138.906346
'ATOMIC BASIS: TYPE AND LMAX'
OPTIMISED,4
'ELECTRON CONFIGURATION AND # ELECTRONS'
MANUAL,57
'MAX NSHELL FOR EACH LQN CONFIG AND OCCUPANCIES'
6  2  2  2  2  2  2
4  6  6  6  6
3 10 10  1
0  0
0  0
'BASIS SET EXPONENTS'
30
7.28338123D+07
1.90549055D+07
6.31825220D+06
2.29672396D+06
8.96380957D+05
3.66522057D+05
1.56180240D+05
6.89304983D+04
3.14214608D+04
1.47499311D+04
7.11329939D+03
3.51591761D+03
1.77721815D+03
9.16882362D+02
4.81658670D+02
2.56541550D+02
1.35070272D+02
7.33891990D+01
3.99539713D+01
2.09370575D+01
1.19066310D+01
6.60485812D+00
3.46112394D+00
1.85798204D+00
8.90657121D-01
4.80671021D-01
2.37418211D-01
7.24997801D-02
3.71707171D-02
1.77981908D-02
24
1.08368032D+07
1.75393681D+06
3.83956028D+05
1.00866487D+05
3.05095529D+04
1.04243012D+04
3.96608995D+03
1.65050782D+03
7.37759521D+02
3.48788672D+02
1.71906129D+02
8.75007083D+01
4.54559125D+01
2.38723132D+01
1.28966181D+01
6.94921551D+00
3.65571312D+00
1.91266737D+00
9.36050901D-01
4.63095831D-01
2.20744703D-01
8.19018986D-02
3.69874571D-02
1.58799802D-02
16
8.53815253D+03
2.25410919D+03
8.15946860D+02
3.46547049D+02
1.61947065D+02
8.04447030D+01
4.16130026D+01
2.19819959D+01
1.18118485D+01
6.31646862D+00
3.30070342D+00
1.69849430D+00
8.35573260D-01
3.56603843D-01
1.44726227D-01
5.43753571D-02
6
1.5070886D+01
5.1016644D+00
2.0718452D+00   
5.8087792D-01
1.9316797D-01
8.2176147D-02
1
1.39474190D-01
'NUMBER OF CLOSED- AND OPEN-SHELL ORBITALS AND OPEN SHELL ELECTRONS'
57,0,0
'LEVEL SHIFT PARAMETER FOR EACH INTEGRAL INCLUSION LEVEL'
0.0,0.0,0.0
'STARTING STAGE OF INTEGRAL INCLUSION LEVEL (1-3)'
1

#note: f-type functions are actually of VQZ type to get Aufbau ground state
